12
Benzene molecule
H -1.250360         0 -2.1656700000000004
H 1.250399999999999 0 -2.1656700000000004
H 2.500699999999998 0 0
H 1.250399999999999 0 2.165700000000001
H -1.25036000000000 0 2.165700000000001
H -2.50067999999999 0 0
C -0.69975999999999 0 -1.2122499999999992
C 0.699799999999999 0 -1.2122499999999992
C 1.399799999999999 0 0
C 0.699799999999999 0 1.212299999999999
C -0.69975999999999 0 1.212299999999999
C -1.39980000000000 0 0
