   70
 
 C   -13.992382     0.000000     1.204771
 C   -14.864678     0.000000     0.092592
 C   -14.315079     0.000000    -1.204771
 C   -12.927756     0.000000    -1.377094
 C   -12.034160     0.000000    -0.277124
 C   -12.610030     0.000000     1.020150
 C   -10.595442     0.000000    -0.531760
 C    -9.593698     0.000000     0.394619
 C    -8.157004     0.000000     0.137809
 C    -7.580660     0.000000    -1.159416
 C    -6.198826     0.000000    -1.332447
 C    -5.301931     0.000000    -0.229501
 C    -5.878449     0.000000     1.067863
 C    -7.260348     0.000000     1.240664
 C    -3.866286     0.000000    -0.486093
 C    -2.862968     0.000000     0.440838
 C    -1.427532     0.000000     0.183970
 C    -0.851284     0.000000    -1.113727
 C     0.530329     0.000000    -1.286886
 C     1.427532     0.000000    -0.183970
 C     0.851284     0.000000     1.113727
 C    -0.530329     0.000000     1.286886
 C     2.862968     0.000000    -0.440838
 C     3.866286     0.000000     0.486093
 C     5.301931     0.000000     0.229501
 C     5.878449     0.000000    -1.067863
 C     7.260348     0.000000    -1.240664
 C     8.157004     0.000000    -0.137809
 C     7.580660     0.000000     1.159416
 C     6.198826     0.000000     1.332447
 C     9.593698     0.000000    -0.394619
 C    10.595442     0.000000     0.531760
 C    12.034160     0.000000     0.277124
 C    12.610030     0.000000    -1.020150
 C    13.992382     0.000000    -1.204771
 C    14.864678     0.000000    -0.092592
 C    14.315079     0.000000     1.204771
 C    12.927756     0.000000     1.377094
 H   -14.402900     0.000000     2.220839
 H   -14.969615     0.000000    -2.083942
 H   -12.518229     0.000000    -2.394778
 H    -8.225888     0.000000    -2.044712
 H   -11.964299     0.000000     1.904812
 H   -10.325048     0.000000    -1.597038
 H    -3.596089     0.000000    -1.551447
 H    -9.862903     0.000000     1.460297
 H    -5.784341     0.000000    -2.348361
 H    -1.496853     0.000000    -1.998718
 H    -5.233186     0.000000     1.953083
 H    -7.674800     0.000000     2.256597
 H     3.133075     0.000000    -1.506206
 H    -3.133075     0.000000     1.506206
 H     0.944745     0.000000    -2.302818
 H     5.233186     0.000000    -1.953083
 H     1.496853     0.000000     1.998718
 H    -0.944745     0.000000     2.302818
 H     9.862903     0.000000    -1.460297
 H     3.596089     0.000000     1.551447
 H     7.674800     0.000000    -2.256597
 H    11.964299     0.000000    -1.904812
 H     8.225888     0.000000     2.044712
 H     5.784341     0.000000     2.348361
 H    17.015423     0.000000     0.890418
 H    10.325048     0.000000     1.597038
 H    14.402900     0.000000    -2.220839
 H   -17.015423     0.000000    -0.890418
 H    14.969615     0.000000     2.083942
 H    12.518229     0.000000     2.394778
 S    16.622693     0.000000    -0.411488
 S   -16.622693     0.000000     0.411488
