   70
 
 C   -13.958825     0.000000     1.202216
 C   -14.829805     0.000000     0.092663
 C   -14.281595     0.000000    -1.202216
 C   -12.897329     0.000000    -1.374604
 C   -12.005404     0.000000    -0.277159
 C   -12.579485     0.000000     1.017626
 C   -10.570115     0.000000    -0.531128
 C    -9.571041     0.000000     0.394213
 C    -8.137743     0.000000     0.138038
 C    -7.563306     0.000000    -1.156747
 C    -6.184422     0.000000    -1.329862
 C    -5.289230     0.000000    -0.229467
 C    -5.863833     0.000000     1.065454
 C    -7.242784     0.000000     1.238344
 C    -3.856965     0.000000    -0.485458
 C    -2.856301     0.000000     0.440381
 C    -1.424245     0.000000     0.184096
 C    -0.849939     0.000000    -1.111168
 C     0.528725     0.000000    -1.284442
 C     1.424245     0.000000    -0.184096
 C     0.849939     0.000000     1.111168
 C    -0.528725     0.000000     1.284442
 C     2.856301     0.000000    -0.440381
 C     3.856965     0.000000     0.485458
 C     5.289230     0.000000     0.229467
 C     5.863833     0.000000    -1.065454
 C     7.242784     0.000000    -1.238344
 C     8.137743     0.000000    -0.138038
 C     7.563306     0.000000     1.156747
 C     6.184422     0.000000     1.329862
 C     9.571041     0.000000    -0.394213
 C    10.570115     0.000000     0.531128
 C    12.005404     0.000000     0.277159
 C    12.579485     0.000000    -1.017626
 C    13.958825     0.000000    -1.202216
 C    14.829805     0.000000    -0.092663
 C    14.281595     0.000000     1.202216
 C    12.897329     0.000000     1.374604
 H   -14.368536     0.000000     2.215974
 H   -14.935242     0.000000    -2.079010
 H   -12.488500     0.000000    -2.389868
 H    -8.207807     0.000000    -2.039577
 H   -11.934574     0.000000     1.899897
 H   -10.299877     0.000000    -1.593996
 H    -3.586957     0.000000    -1.548411
 H    -9.840136     0.000000     1.457468
 H    -5.770682     0.000000    -2.343375
 H    -1.494796     0.000000    -1.993684
 H    -5.219301     0.000000     1.948215
 H    -7.656487     0.000000     2.251878
 H     3.126219     0.000000    -1.503349
 H    -3.126219     0.000000     1.503349
 H     0.942373     0.000000    -2.297983
 H     5.219301     0.000000    -1.948215
 H     1.494796     0.000000     1.993684
 H    -0.942373     0.000000     2.297983
 H     9.840136     0.000000    -1.457468
 H     3.586957     0.000000     1.548411
 H     7.656487     0.000000    -2.251878
 H    11.934574     0.000000    -1.899897
 H     8.207807     0.000000     2.039577
 H     5.770682     0.000000     2.343375
 H    16.974365     0.000000     0.888602
 H    10.299877     0.000000     1.593996
 H    14.368536     0.000000    -2.215974
 H   -16.974365     0.000000    -0.888602
 H    14.935242     0.000000     2.079010
 H    12.488500     0.000000     2.389868
 S    16.582349     0.000000    -0.410829
 S   -16.582349     0.000000     0.410829
