70
Fat Molecule geometry optimization
C	13.9546059662	-0.0004073532	-1.1980858140
C	14.8359395319	0.0000395730	-0.0944385802
C	14.2965308902	0.0004510973	1.2057154102
C	12.9124073349	0.0005302009	1.3891065135
C	12.0109485701	0.0000685182	0.2980988030
C	12.5759719307	-0.0004046822	-1.0019322900
C	10.5760769830	0.0001151316	0.5588219082
C	9.5748376417	-0.0000193042	-0.3661305473
C	8.1407458380	-0.0000083784	-0.1112600740
C	7.5648305554	0.0004538075	1.1839408271
C	6.1844972279	0.0004310171	1.3567115239
C	5.2893017920	0.0000333175	0.2550946790
C	5.8654741617	-0.0004055349	-1.0401401897
C	7.2455029695	-0.0004412381	-1.2126983213
C	3.8553919955	0.0000935957	0.5062087783
C	2.8589634359	-0.0001263280	-0.4260135458
C	1.4248040468	-0.0001792647	-0.1779851637
C	0.8444610162	-0.0001267245	1.1156029363
C	-0.5360280416	-0.0000565833	1.2834796381
C	-1.4276199456	-0.0001352489	0.1787117084
C	-0.8472720484	-0.0001310757	-1.1149029178
C	0.5332347453	-0.0001520868	-1.2827891310
C	-2.8617361516	-0.0000917967	0.4270954351
C	-3.8581648313	-0.0001150062	-0.5051302880
C	-5.2921239499	-0.0001437674	-0.2543603079
C	-5.8683997566	-0.0003888237	1.0408499267
C	-7.2484155636	-0.0004755649	1.2133496929
C	-8.1436155140	-0.0001246726	0.1119254625
C	-7.5676880941	0.0000924293	-1.1832864295
C	-6.1873348425	0.0001257153	-1.3560191197
C	-9.5776694423	-0.0002057752	0.3670408549
C	-10.5788098447	0.0001633511	-0.5580385109
C	-12.0137871495	0.0001443497	-0.2978991732
C	-12.5791143311	-0.0005938580	1.0019735103
C	-13.9577675295	-0.0004878280	1.1978231567
C	-14.8388385042	0.0001192135	0.0939606684
C	-14.2991133287	0.0007707432	-1.2060677959
C	-12.9149643998	0.0007968967	-1.3891787044
H	14.3585280942	-0.0007534380	-2.2189764034
H	14.9606738743	0.0008573367	2.0801114864
H	12.5104919462	0.0008429352	2.4120350153
H	8.2118739851	0.0008164310	2.0705827090
H	11.9214861092	-0.0007696354	-1.8828752181
H	10.3068764257	0.0002857275	1.6268478554
H	3.5783315745	0.0003389388	1.5721761986
H	9.8460542679	-0.0002201710	-1.4336571564
H	5.7685186972	0.0007962085	2.3741407769
H	1.4886053283	-0.0001187994	2.0042179619
H	5.2185832914	-0.0007474407	-1.9268015617
H	7.6611297209	-0.0008037243	-2.2302617925
H	-3.1394709564	-0.0001383812	1.4928523561
H	3.1370613971	-0.0003239291	-1.4917118416
H	-0.9555256378	-0.0000522078	2.2994259497
H	-5.2214954633	-0.0006705274	1.9275087269
H	-1.4914207498	-0.0001546386	-2.0035351835
H	0.9526642787	-0.0002048504	-2.2987578871
H	-9.8486859543	-0.0004889972	1.4346148778
H	-3.5807939619	-0.0000678719	-1.5710103068
H	-7.6641423028	-0.0006871220	2.2308574183
H	-11.9247902782	-0.0010692825	1.8830260278
H	-8.2146988375	0.0002689056	-2.0699389380
H	-5.7714000624	0.0003537375	-2.3734986877
H	-16.9938122736	0.0009583849	-0.8733701950
H	-10.3091261127	0.0005093041	-1.6259560020
H	-14.3618632063	-0.0010816598	2.2186412371
H	16.9911675524	0.0007384839	0.8723129851
H	-14.9631246756	0.0012785883	-2.0805720965
H	-12.5129039402	0.0013316269	-2.4120343544
S	-16.5894413168	0.0001079342	0.4308741347
S	16.5864498116	0.0000214396	-0.4318261249
