70
Fat Molecule
C	13.9340212454	-0.0003472563	-1.1924494046
C	14.8174034520	0.0000765882	-0.0966790158
C	14.2835066550	0.0004744913	1.2002519566
C	12.9020596310	0.0004699978	1.3878391515
C	12.0031057715	0.0000750190	0.3029808658
C	12.5597511363	-0.0003504032	-0.9940160860
C	10.5632952446	0.0001293600	0.5656827858
C	9.5677311756	-0.0000525431	-0.3505151104
C	8.1276470339	-0.0000059325	-0.0994328697
C	7.5517219992	0.0004021628	1.1886961939
C	6.1731802426	0.0003929745	1.3552249201
C	5.2893638500	-0.0000062579	0.2527570969
C	5.8655663175	-0.0004132669	-1.0353530825
C	7.2439127573	-0.0004028311	-1.2017130508
C	3.8491444535	0.0000267164	0.5007672923
C	2.8583464186	-0.0001247779	-0.4217384796
C	1.4181609409	-0.0001032263	-0.1743220094
C	0.8406524631	-0.0000251410	1.1134007875
C	-0.5377912966	-0.0000208526	1.2785737651
C	-1.4206614698	-0.0000971256	0.1751542284
C	-0.8430734076	-0.0001723634	-1.1124874944
C	0.5354073608	-0.0001744588	-1.2776367534
C	-2.8609194737	-0.0001058827	0.4223667713
C	-3.8518096944	-0.0001417618	-0.5000868121
C	-5.2921824109	-0.0001675138	-0.2519636189
C	-5.8684940319	-0.0004507214	1.0361445914
C	-7.2468095114	-0.0004458572	1.2024172989
C	-8.1305232222	-0.0001633118	0.1000521533
C	-7.5545342911	0.0001032204	-1.1879901695
C	-6.1760130234	0.0000940658	-1.3544681206
C	-9.5707830499	-0.0001852924	0.3508074569
C	-10.5662199886	0.0001813594	-0.5654580370
C	-12.0058719408	0.0001333726	-0.3025579767
C	-12.5628031037	-0.0005095066	0.9943350022
C	-13.9371500951	-0.0005019840	1.1923409024
C	-14.8203405826	0.0001415406	0.0963511869
C	-14.2860698613	0.0007596443	-1.2004466101
C	-12.9045353980	0.0007522731	-1.3876243857
H	14.3276245130	-0.0006965193	-2.2114424230
H	14.9442059634	0.0008134227	2.0695285669
H	12.5046528371	0.0008129007	2.4057910284
H	8.1925223395	0.0007658699	2.0714821480
H	11.9044546536	-0.0007246129	-1.8657210687
H	10.3014283210	0.0003451788	1.6292837715
H	3.5795482358	0.0002129778	1.5623549706
H	9.8327489235	-0.0002655315	-1.4132237898
H	5.7522369447	0.0007288624	2.3634782931
H	1.4803093321	0.0000265316	1.9970105381
H	5.2251483110	-0.0007834452	-1.9184195465
H	7.6645315827	-0.0007404974	-2.2101117309
H	-3.1307314736	-0.0000683957	1.4839860016
H	3.1280436226	-0.0002677978	-1.4834266497
H	-0.9595074291	0.0000374271	2.2864922911
H	-5.2282423944	-0.0007193758	1.9192588825
H	-1.4826469211	-0.0002414471	-1.9961385010
H	0.9572980612	-0.0002384949	-2.2854996698
H	-9.8361040939	-0.0005280707	1.4134211395
H	-3.5823987382	-0.0001315653	-1.5617717003
H	-7.6675334742	-0.0006826264	2.2107780717
H	-11.9079088918	-0.0010763048	1.8663502430
H	-8.1953883694	0.0003222326	-2.0707722431
H	-5.7551379801	0.0003068790	-2.3626887025
H	-16.9962220871	0.0010076768	-0.8303368273
H	-10.3046155259	0.0005734845	-1.6290975524
H	-14.3311939129	-0.0010353997	2.2111586048
H	16.9933872121	0.0006891637	0.8296571577
H	-14.9464395216	0.0012821908	-2.0699965473
H	-12.5067447925	0.0012809157	-2.4053699848
S	-16.5608812990	0.0000715245	0.4505299811
S	16.5580277451	0.0000396959	-0.4511535761
