94
Fat Molecule with tertbutyl endings: geometry optimization
H	-14.3206777837	2.4910251824	0.1188546896
H	-14.9386663299	-1.7781359515	-0.1363555614
H	-12.5243997615	-2.1207292692	-0.1087095957
H	-8.2419939313	-1.8594760692	-0.0363475443
H	-11.9015242762	2.1405475313	0.1361722911
H	-10.3186383798	-1.3707588358	-0.0202886087
H	-3.6163090857	-1.4702242748	-0.0349769729
H	-9.8062771590	1.6613227182	0.0597721737
H	-5.8204652792	-2.2152628809	-0.0520230413
H	-1.5313292729	-1.9629547528	-0.0365935439
H	-5.1782654378	2.0508826649	0.0772232238
H	-7.6002989293	2.4067935635	0.0923787517
H	3.0959731501	-1.5693182834	-0.0536147159
H	-3.0931419950	1.5595573821	0.0542534853
H	0.8908084807	-2.3175909401	-0.0568106662
H	5.1826487378	-2.0556904191	-0.0776006242
H	1.5310204071	1.9504276389	0.0333377940
H	-0.8911580078	2.3048756460	0.0533722401
H	9.8099623793	-1.6555728352	-0.0576568333
H	3.6132624079	1.4620184007	0.0245014513
H	7.6056007446	-2.4061316016	-0.0888848701
H	11.9029485131	-2.1347211261	-0.1277073755
H	8.2369972544	1.8621950924	0.0331342623
H	5.8147432691	2.2118277903	0.0446404990
C	17.6751843932	0.6512456990	0.0399847926
H	10.3193404134	1.3768353358	0.0262769923
H	14.3219331880	-2.4847716173	-0.1116230526
C	-17.6714437468	-0.6488938755	-0.0389973116
H	14.9393620707	1.7852532355	0.1388316501
H	12.5248718112	2.1269182687	0.1119370312
C	-13.9283385263	1.4732504056	0.0650412100
C	-14.8291262933	0.3884237182	-0.0127728400
C	-14.2929958729	-0.9061575677	-0.0742737053
C	-12.9113332047	-1.0997523108	-0.0600713731
C	-12.0037123690	-0.0279008201	0.0093214647
C	-12.5565336360	1.2702300952	0.0738395576
C	-10.5686940505	-0.3057198811	0.0090378394
C	-9.5594883278	0.5954403450	0.0350636071
C	-8.1262222083	0.3096043944	0.0286312899
C	-7.5817725609	-0.9913732887	-0.0109811355
C	-6.2085752818	-1.1941486644	-0.0199008196
C	-5.2941520190	-0.1179476464	0.0106813513
C	-5.8386126536	1.1829559083	0.0519184278
C	-7.2118723608	1.3857599552	0.0604684124
C	-3.8616563943	-0.4043207722	-0.0017388727
C	-2.8483656848	0.4934947553	0.0224074809
C	-1.4159615001	0.2068544675	0.0095665521
C	-0.8711801652	-1.0944216468	-0.0217281956
C	0.5020958002	-1.2965407972	-0.0330602992
C	1.4158542797	-0.2192491478	-0.0136243236
C	0.8708696937	1.0819100335	0.0176936144
C	-0.5022176347	1.2839943605	0.0290748167
C	2.8487969157	-0.5037331231	-0.0255819381
C	3.8602317622	0.3963684804	-0.0046183420
C	5.2934913497	0.1132681756	-0.0152777762
C	5.8411949631	-1.1863105098	-0.0533067992
C	7.2150186394	-1.3859055215	-0.0595989362
C	8.1268830863	-0.3075288822	-0.0283565455
C	7.5790749836	0.9922047275	0.0081868565
C	6.2053649000	1.1916333399	0.0146000764
C	9.5609983932	-0.5902090142	-0.0324332465
C	10.5694805575	0.3118092399	-0.0040354987
C	12.0047281849	0.0341341589	-0.0037321551
C	12.5577147959	-1.2640520431	-0.0669100811
C	13.9295893639	-1.4669414017	-0.0586217585
C	14.8307665943	-0.3822050050	0.0174824175
C	14.2943744313	0.9126056060	0.0780400732
C	12.9124975406	1.1060367805	0.0642609272
S	16.5528251652	-0.8620021904	0.0402644906
S	-16.5513310312	0.8659680710	-0.0360765915
C	-19.0713253492	-0.0091167808	-0.0116145671
C	-17.5127561686	-1.4646688711	-1.3291831962
C	-17.4739490982	-1.4995819248	1.2223874795
C	17.4773864555	1.4999093470	-1.2226830102
C	17.5189280268	1.4691109583	1.3291585765
C	19.0744058664	0.0102923085	0.0128816661
H	-19.2362793038	0.6375012795	-0.8872681183
H	-19.8336815935	-0.8052423944	-0.0266693957
H	-19.2220565354	0.5926926454	0.8975601100
H	-17.6810406370	-0.8329992216	-2.2139202097
H	-16.5185625794	-1.9209979699	-1.4259778655
H	-18.2565960438	-2.2805012668	-1.3421609984
H	-17.6203552663	-0.8939815698	2.1290518682
H	-18.2141414868	-2.3188836406	1.2321955693
H	-16.4752137986	-1.9533203877	1.2776066492
H	18.2599475676	2.2877529590	1.3367919482
H	16.5231880076	1.9211204018	1.4299453506
H	17.6941653565	0.8399599397	2.2143199815
H	18.2170781895	2.3197391617	-1.2339709569
H	17.6243620093	0.8936018499	-2.1288062656
H	16.4783324421	1.9527101532	-1.2787874592
H	19.8370627140	0.8063794994	0.0185695138
H	19.2418802884	-0.6284977633	0.8937292926
H	19.2218712324	-0.5992064226	-0.8917091928
